<?xml version="1.0" encoding="UTF-8"?>

<!-- generated on 2025-12-11T21:35:56.338483-06:00 by Eclipse SUMO activitygen 1.25.0
<activitygenConfiguration xmlns:xsi="http://www.w3.org/2001/XMLSchema-instance" xsi:noNamespaceSchemaLocation="http://sumo.dlr.de/xsd/activitygenConfiguration.xsd">

    <input>
        <net-file value="..\data\sumo_network\greensboro.net.xml"/>
        <stat-file value="..\data\statistics.xml"/>
    </input>

    <output>
        <output-file value="..\data\Activitygen.trips.rou.xml"/>
    </output>

    <random_number>
        <random value="true"/>
    </random_number>

</activitygenConfiguration>
-->

<routes xmlns:xsi="http://www.w3.org/2001/XMLSchema-instance" xsi:noNamespaceSchemaLocation="http://sumo.dlr.de/xsd/routes_file.xsd">
    <vType id="default" vClass="passenger" color="red"/>
    <vType id="random" vClass="passenger" color="blue"/>
    <vType id="bus" vClass="bus" color="green"/>

    <trip id="randUni283:1" type="random" depart="210.00" departPos="20.54" arrivalPos="190.98" arrivalSpeed="0.00" from="-16746041#1" to="-179741341#11"/>
    <trip id="randUni89:1" type="random" depart="1518.00" departPos="17.55" arrivalPos="610.14" arrivalSpeed="0.00" from="-16584261#4" to="-16724824#0"/>
    <trip id="randUni419:1" type="random" depart="1846.00" departPos="33.51" arrivalPos="140.12" arrivalSpeed="0.00" from="-619595352" to="16578478"/>
    <trip id="randUni407:1" type="random" depart="1868.00" departPos="31.38" arrivalPos="82.49" arrivalSpeed="0.00" from="-16397238#5" to="252664673#0"/>
    <trip id="randUni17:1" type="random" depart="2914.00" departPos="169.12" arrivalPos="63.30" arrivalSpeed="0.00" from="-16602169#2" to="-627976088"/>
    <trip id="randUni348:1" type="random" depart="2935.00" departPos="1440.09" arrivalPos="68.04" arrivalSpeed="0.00" from="-523136317#1" to="16395409#6"/>
    <trip id="randUni361:1" type="random" depart="3275.00" departPos="30.84" arrivalPos="218.72" arrivalSpeed="0.00" from="-607270038#0" to="-310364578#1"/>
    <trip id="randUni164:1" type="random" depart="3397.00" departPos="68.29" arrivalPos="100.88" arrivalSpeed="0.00" from="-16587325#1" to="16576406"/>
    <trip id="randUni64:1" type="random" depart="3401.00" departPos="352.99" arrivalPos="84.67" arrivalSpeed="0.00" from="-16607297#2" to="682617632#1"/>
    <trip id="randUni138:1" type="random" depart="3738.00" departPos="103.26" arrivalPos="95.66" arrivalSpeed="0.00" from="16395735#4" to="16396315#7"/>
    <trip id="randUni222:1" type="random" depart="4449.00" departPos="2.43" arrivalPos="22.67" arrivalSpeed="0.00" from="16594369" to="16580988#1"/>
    <trip id="randUni159:1" type="random" depart="4582.00" departPos="46.01" arrivalPos="95.67" arrivalSpeed="0.00" from="810894567" to="16551299"/>
    <trip id="randUni231:1" type="random" depart="4642.00" departPos="213.97" arrivalPos="111.44" arrivalSpeed="0.00" from="-16391721#3" to="-16386807"/>
    <trip id="randUni464:1" type="random" depart="4702.00" departPos="0.10" arrivalPos="286.42" arrivalSpeed="0.00" from="-16758560#10" to="16583612#0"/>
    <trip id="randUni382:1" type="random" depart="4735.00" departPos="85.28" arrivalPos="42.57" arrivalSpeed="0.00" from="-16392277#2" to="16505245#12"/>
    <trip id="randUni21:1" type="random" depart="6185.00" departPos="77.09" arrivalPos="21.48" arrivalSpeed="0.00" from="-48950375#5" to="16593508#1"/>
    <trip id="randUni160:1" type="random" depart="6348.00" departPos="39.95" arrivalPos="61.73" arrivalSpeed="0.00" from="16391654" to="765607263#13"/>
    <trip id="randUni97:1" type="random" depart="6777.00" departPos="103.16" arrivalPos="58.59" arrivalSpeed="0.00" from="16699822#4" to="-16394488#27"/>
    <trip id="randUni312:1" type="random" depart="7154.00" departPos="83.11" arrivalPos="659.92" arrivalSpeed="0.00" from="-16395438" to="16460289#8"/>
    <trip id="randUni428:1" type="random" depart="7282.00" departPos="40.00" arrivalPos="137.62" arrivalSpeed="0.00" from="-16397578#0" to="16586852#2"/>
    <trip id="randUni457:1" type="random" depart="7440.00" departPos="176.30" arrivalPos="3.74" arrivalSpeed="0.00" from="132985808#8" to="16397030#3"/>
    <trip id="randUni80:1" type="random" depart="7781.00" departPos="71.82" arrivalPos="61.65" arrivalSpeed="0.00" from="-16604933#1" to="572982798#4-AddedOffRampEdge"/>
    <trip id="randUni306:1" type="random" depart="9139.00" departPos="29.74" arrivalPos="555.32" arrivalSpeed="0.00" from="-346949148#17" to="-16596838#21"/>
    <trip id="randUni171:1" type="random" depart="10547.00" departPos="83.38" arrivalPos="0.42" arrivalSpeed="0.00" from="16607460#1" to="-16739236"/>
    <trip id="randUni378:1" type="random" depart="10625.00" departPos="476.24" arrivalPos="131.25" arrivalSpeed="0.00" from="16554353#0" to="16394483#0"/>
    <trip id="randUni71:1" type="random" depart="11068.00" departPos="142.04" arrivalPos="15.34" arrivalSpeed="0.00" from="-701721889#1" to="180664901#1"/>
    <trip id="randUni32:1" type="random" depart="11641.00" departPos="5.92" arrivalPos="108.80" arrivalSpeed="0.00" from="16574659" to="16748522#0"/>
    <trip id="randUni90:1" type="random" depart="11799.00" departPos="81.67" arrivalPos="3.63" arrivalSpeed="0.00" from="-16585037#5" to="16762301#1"/>
    <trip id="randUni45:1" type="random" depart="11984.00" departPos="11.97" arrivalPos="134.80" arrivalSpeed="0.00" from="-334175929#2" to="16586725"/>
    <trip id="randUni243:1" type="random" depart="12004.00" departPos="25.41" arrivalPos="109.42" arrivalSpeed="0.00" from="16590972#2" to="-768021128#1"/>
    <trip id="randUni402:1" type="random" depart="12072.00" departPos="115.61" arrivalPos="713.70" arrivalSpeed="0.00" from="16586915#3" to="-16459911#1"/>
    <trip id="randUni33:1" type="random" depart="13228.00" departPos="16.73" arrivalPos="66.88" arrivalSpeed="0.00" from="-547175736#1" to="438281680#1"/>
    <trip id="randUni314:1" type="random" depart="13423.00" departPos="48.91" arrivalPos="195.52" arrivalSpeed="0.00" from="-16598378#1" to="-739491001"/>
    <trip id="randUni241:1" type="random" depart="14168.00" departPos="100.72" arrivalPos="141.43" arrivalSpeed="0.00" from="602697335" to="16727044#2"/>
    <trip id="randUni93:1" type="random" depart="14955.00" departPos="0.92" arrivalPos="28.86" arrivalSpeed="0.00" from="16562212#4" to="-16587040"/>
    <trip id="randUni289:1" type="random" depart="14990.00" departPos="159.90" arrivalPos="147.28" arrivalSpeed="0.00" from="16596762" to="-252674815#0"/>
    <trip id="randUni152:1" type="random" depart="15195.00" departPos="173.00" arrivalPos="229.92" arrivalSpeed="0.00" from="16581031#1" to="609872239#0"/>
    <trip id="randUni341:1" type="random" depart="15293.00" departPos="14.97" arrivalPos="77.31" arrivalSpeed="0.00" from="16399202#0" to="-16456215"/>
    <trip id="randUni468:1" type="random" depart="15601.00" departPos="78.11" arrivalPos="166.05" arrivalSpeed="0.00" from="16604804#1" to="16595813#6"/>
    <trip id="randUni472:1" type="random" depart="16538.00" departPos="25.53" arrivalPos="18.00" arrivalSpeed="0.00" from="-737646941#2" to="-323901602#1"/>
    <trip id="randUni92:1" type="random" depart="16765.00" departPos="288.26" arrivalPos="209.45" arrivalSpeed="0.00" from="-16742735#24" to="-16455103"/>
    <trip id="randUni192:1" type="random" depart="17207.00" departPos="29.27" arrivalPos="22.59" arrivalSpeed="0.00" from="-16595885#1" to="758620910"/>
    <trip id="randUni195:1" type="random" depart="17583.00" departPos="113.34" arrivalPos="14.72" arrivalSpeed="0.00" from="16600507#6" to="685010842"/>
    <trip id="randUni291:1" type="random" depart="17587.00" departPos="17.48" arrivalPos="299.99" arrivalSpeed="0.00" from="16596026" to="-16459397"/>
    <trip id="randUni60:1" type="random" depart="17878.00" departPos="75.17" arrivalPos="223.07" arrivalSpeed="0.00" from="16596171#7" to="611355814#0"/>
    <trip id="randUni368:1" type="random" depart="18178.00" departPos="188.58" arrivalPos="28.35" arrivalSpeed="0.00" from="-761662389#7" to="16504819#1"/>
    <trip id="randUni254:1" type="random" depart="18227.00" departPos="23.32" arrivalPos="221.87" arrivalSpeed="0.00" from="16756889#1" to="16455334"/>
    <trip id="randUni247:1" type="random" depart="18245.00" departPos="11.99" arrivalPos="2.68" arrivalSpeed="0.00" from="-16591006#27" to="619912441#0"/>
    <trip id="randUni162:1" type="random" depart="18425.00" departPos="63.86" arrivalPos="557.28" arrivalSpeed="0.00" from="16607714#1" to="16735340#2"/>
    <trip id="randUni18:1" type="random" depart="18452.00" departPos="12.36" arrivalPos="19.68" arrivalSpeed="0.00" from="-16500534#3" to="-16396421#0"/>
    <trip id="randUni413:1" type="random" depart="18747.00" departPos="69.87" arrivalPos="79.71" arrivalSpeed="0.00" from="750332346#7" to="-648979880#1"/>
    <trip id="randUni377:1" type="random" depart="18807.00" departPos="243.65" arrivalPos="38.52" arrivalSpeed="0.00" from="368140591#4" to="16395349#7"/>
    <trip id="randUni374:1" type="random" depart="20568.00" departPos="31.09" arrivalPos="86.97" arrivalSpeed="0.00" from="16565803#0" to="16557636#6"/>
    <trip id="randUni295:1" type="random" depart="20606.00" departPos="67.87" arrivalPos="831.83" arrivalSpeed="0.00" from="-16590729#0" to="49990071#0"/>
    <trip id="randUni223:1" type="random" depart="21102.00" departPos="1258.44" arrivalPos="102.18" arrivalSpeed="0.00" from="-16702469#12" to="-735205800#1"/>
    <trip id="randUni61:1" type="random" depart="21604.00" departPos="303.00" arrivalPos="266.28" arrivalSpeed="0.00" from="16592962#2" to="-16499322#30"/>
    <trip id="randUni205:1" type="random" depart="22147.00" departPos="267.55" arrivalPos="4.59" arrivalSpeed="0.00" from="-16556448#7" to="-16577452#2"/>
    <trip id="randUni146:1" type="random" depart="23023.00" departPos="156.85" arrivalPos="96.83" arrivalSpeed="0.00" from="-16399555#0" to="-16504530#14"/>
    <trip id="randUni462:1" type="random" depart="23286.00" departPos="47.07" arrivalPos="181.63" arrivalSpeed="0.00" from="-16775413#2" to="16587182#0"/>
    <trip id="randUni11:1" type="random" depart="23322.00" departPos="509.58" arrivalPos="20.52" arrivalSpeed="0.00" from="-16778938#24" to="709606277#0"/>
    <trip id="randUni239:1" type="random" depart="23493.00" departPos="18.02" arrivalPos="60.45" arrivalSpeed="0.00" from="-16392094#3" to="-16773936#42"/>
    <trip id="randUni9:1" type="random" depart="23840.00" departPos="345.79" arrivalPos="40.56" arrivalSpeed="0.00" from="-16576677#5" to="16605970"/>
    <trip id="randUni282:1" type="random" depart="24794.00" departPos="79.60" arrivalPos="393.30" arrivalSpeed="0.00" from="16585773#0" to="-16394675#9"/>
    <trip id="randUni191:1" type="random" depart="24886.00" departPos="255.61" arrivalPos="87.20" arrivalSpeed="0.00" from="614247371#4" to="16392880#6"/>
    <trip id="randUni265:1" type="random" depart="25139.00" departPos="17.71" arrivalPos="8.58" arrivalSpeed="0.00" from="48950375#35" to="-48950375#16"/>
    <trip id="randUni35:1" type="random" depart="25202.00" departPos="47.58" arrivalPos="24.03" arrivalSpeed="0.00" from="750374056#24" to="-278676419"/>
    <trip id="randUni211:1" type="random" depart="25464.00" departPos="51.15" arrivalPos="27.15" arrivalSpeed="0.00" from="412509637#2" to="16563297#10"/>
    <trip id="randUni36:1" type="random" depart="25489.00" departPos="171.27" arrivalPos="11.42" arrivalSpeed="0.00" from="120108374" to="16577281#2"/>
    <trip id="randUni95:1" type="random" depart="25585.00" departPos="14.91" arrivalPos="133.13" arrivalSpeed="0.00" from="-16604456#4" to="-16601142#1"/>
    <trip id="randUni433:1" type="random" depart="26168.00" departPos="20.87" arrivalPos="139.16" arrivalSpeed="0.00" from="-16499551#3" to="-16585599#1"/>
    <trip id="randUni193:1" type="random" depart="26399.00" departPos="241.66" arrivalPos="154.45" arrivalSpeed="0.00" from="16580861#1" to="16565790"/>
    <trip id="randUni439:1" type="random" depart="27431.00" departPos="54.96" arrivalPos="18.55" arrivalSpeed="0.00" from="-16585164#1" to="16503273#1"/>
    <trip id="randUni416:1" type="random" depart="27445.00" departPos="26.53" arrivalPos="29.41" arrivalSpeed="0.00" from="16458818#1" to="16398993#3"/>
    <trip id="randUni285:1" type="random" depart="28162.00" departPos="0.19" arrivalPos="32.58" arrivalSpeed="0.00" from="-16587892#1" to="-16395268#1"/>
    <trip id="randUni332:1" type="random" depart="28417.00" departPos="1.53" arrivalPos="134.01" arrivalSpeed="0.00" from="-16604050#2" to="16510375#7"/>
    <trip id="randUni156:1" type="random" depart="28901.00" departPos="110.13" arrivalPos="46.74" arrivalSpeed="0.00" from="-741857237#5" to="16574782"/>
    <trip id="h436c1:1" type="default" depart="29526.00" departPos="296.46" arrivalPos="296.46" arrivalSpeed="0.00" from="308964635" via="-16391805#3" to="308964635"/>
    <trip id="h38c1:1" type="default" depart="29639.00" departPos="0.65" arrivalPos="98.45" arrivalSpeed="0.00" from="-16398958#25" to="16733427#0"/>
    <trip id="h241c1:1" type="default" depart="29661.00" departPos="2374.28" arrivalPos="48.15" arrivalSpeed="0.00" from="132985788#0" to="-16755091#30"/>
    <trip id="h266c1:1" type="default" depart="29723.00" departPos="85.60" arrivalPos="105.54" arrivalSpeed="0.00" from="16397096#10" to="16728316#12"/>
    <trip id="h245c1:1" type="default" depart="29746.00" departPos="33.66" arrivalPos="33.66" arrivalSpeed="0.00" from="16389782" via="-16576775#2" to="16389782"/>
    <trip id="h396c1:1" type="default" depart="29754.00" departPos="837.87" arrivalPos="837.87" arrivalSpeed="0.00" from="16749863" via="16601536#0" to="16749863"/>
    <trip id="h205c1:1" type="default" depart="29770.00" departPos="1644.20" arrivalPos="71.66" arrivalSpeed="0.00" from="-40985189#38" to="-458616873"/>
    <trip id="randUni233:1" type="random" depart="29791.00" departPos="21.41" arrivalPos="42.12" arrivalSpeed="0.00" from="16607680#1" to="735119335"/>
    <trip id="h420c1:1" type="default" depart="29796.00" departPos="194.00" arrivalPos="194.00" arrivalSpeed="0.00" from="16777276" via="-16390609#3" to="16777276"/>
    <trip id="h30c1:1" type="default" depart="29805.00" departPos="87.61" arrivalPos="87.61" arrivalSpeed="0.00" from="-16395614#0" via="16584587#1" to="-16395614#0"/>
    <trip id="h174c1:1" type="default" depart="29811.00" departPos="88.16" arrivalPos="88.16" arrivalSpeed="0.00" from="-16761641" via="-16597639#0" to="-16761641"/>
    <trip id="h243c1:1" type="default" depart="29874.00" departPos="18.13" arrivalPos="18.13" arrivalSpeed="0.00" from="16386751#21" via="-16710584#1" to="16386751#21"/>
    <trip id="h134c1:1" type="default" depart="29937.00" departPos="155.83" arrivalPos="155.83" arrivalSpeed="0.00" from="-16606420" via="16582491#31" to="-16606420"/>
    <trip id="h204c1:1" type="default" depart="29945.00" departPos="0.06" arrivalPos="0.06" arrivalSpeed="0.00" from="-388943635#1" via="606827233#0" to="-388943635#1"/>
    <trip id="h118c1:1" type="default" depart="29951.00" departPos="184.65" arrivalPos="184.65" arrivalSpeed="0.00" from="-16600085#3" via="-132985781#7" to="-16600085#3"/>
    <trip id="h307c1:1" type="default" depart="29961.00" departPos="57.24" arrivalPos="57.24" arrivalSpeed="0.00" from="16565976#0" via="-16733189#3" to="16565976#0"/>
    <trip id="h384c1:1" type="default" depart="29966.00" departPos="200.37" arrivalPos="200.37" arrivalSpeed="0.00" from="16727924#1" via="339193610" to="16727924#1"/>
    <trip id="h70c1:1" type="default" depart="29973.00" departPos="528.33" arrivalPos="528.33" arrivalSpeed="0.00" from="-16563186#6" via="649811440#0" to="-16563186#6"/>
    <trip id="h230c1:1" type="default" depart="29991.00" departPos="116.49" arrivalPos="116.49" arrivalSpeed="0.00" from="-753826181#1" via="-16746769#2" to="-753826181#1"/>
    <trip id="h194c1:1" type="default" depart="30018.00" departPos="677.09" arrivalPos="677.09" arrivalSpeed="0.00" from="-308752137#3" via="-16461564#8" to="-308752137#3"/>
    <trip id="h119c1:1" type="default" depart="30019.00" departPos="202.69" arrivalPos="400.78" arrivalSpeed="0.00" from="-16600725" to="-16398589#1"/>
    <trip id="h217c1:1" type="default" depart="30033.00" departPos="659.66" arrivalPos="659.66" arrivalSpeed="0.00" from="-625855215#12" via="16397738#0" to="-625855215#12"/>
    <trip id="h20c1:1" type="default" depart="30047.00" departPos="176.45" arrivalPos="1.08" arrivalSpeed="0.00" from="-16393360" to="-16752236#4"/>
    <trip id="h259c1:1" type="default" depart="30066.00" departPos="280.55" arrivalPos="60.16" arrivalSpeed="0.00" from="16394681#1" to="16598785#1"/>
    <trip id="h350c1:1" type="default" depart="30066.00" departPos="72.96" arrivalPos="72.96" arrivalSpeed="0.00" from="16597354" via="-41078919#6" to="16597354"/>
    <trip id="h50c1:1" type="default" depart="30068.00" departPos="1599.80" arrivalPos="1599.80" arrivalSpeed="0.00" from="-16460323#2" via="-16555773#4" to="-16460323#2"/>
    <trip id="h61c1:1" type="default" depart="30079.00" departPos="78.18" arrivalPos="78.18" arrivalSpeed="0.00" from="-16546415" via="311772895#2" to="-16546415"/>
    <trip id="h379c1:1" type="default" depart="30079.00" departPos="838.66" arrivalPos="80.14" arrivalSpeed="0.00" from="16708811#0" to="16508764#2"/>
    <trip id="h226c1:1" type="default" depart="30083.00" departPos="206.39" arrivalPos="206.39" arrivalSpeed="0.00" from="-739794266#6" via="16593294#0" to="-739794266#6"/>
    <trip id="h8c1:1" type="default" depart="30092.00" departPos="68.99" arrivalPos="68.99" arrivalSpeed="0.00" from="-16387856#3" via="16460879#2" to="-16387856#3"/>
    <trip id="h361c1:1" type="default" depart="30113.00" departPos="995.67" arrivalPos="995.67" arrivalSpeed="0.00" from="16603991#0" via="-16587971#1" to="16603991#0"/>
    <trip id="h49c1:1" type="default" depart="30121.00" departPos="1096.11" arrivalPos="1096.11" arrivalSpeed="0.00" from="-16459975#3" via="16711019#0" to="-16459975#3"/>
    <trip id="h375c1:1" type="default" depart="30129.00" departPos="1453.09" arrivalPos="7.68" arrivalSpeed="0.00" from="16702444#1" to="-571842718#32"/>
    <trip id="randUni163:1" type="random" depart="30161.00" departPos="23.62" arrivalPos="19.34" arrivalSpeed="0.00" from="-16391020#1" to="16745361#10"/>
    <trip id="h298c1:1" type="default" depart="30167.00" departPos="358.61" arrivalPos="188.70" arrivalSpeed="0.00" from="16553054#4" to="-628544174#1"/>
    <trip id="h13c1:1" type="default" depart="30200.00" departPos="112.89" arrivalPos="112.89" arrivalSpeed="0.00" from="-16390760#4" via="16548796" to="-16390760#4"/>
    <trip id="h18c1:1" type="default" depart="30211.00" departPos="93.88" arrivalPos="6.62" arrivalSpeed="0.00" from="-16392604#6" to="-16545984#0"/>
    <trip id="h424c1:1" type="default" depart="30221.00" departPos="46.57" arrivalPos="19.85" arrivalSpeed="0.00" from="190083010" to="-16600911#2"/>
    <trip id="h138c1:1" type="default" depart="30243.00" departPos="239.48" arrivalPos="239.48" arrivalSpeed="0.00" from="-16607951#12" via="-16580959#4" to="-16607951#12"/>
    <trip id="h213c1:1" type="default" depart="30254.00" departPos="32.58" arrivalPos="160.56" arrivalSpeed="0.00" from="-581029966#14" to="16596498#0"/>
    <trip id="h331c1:1" type="default" depart="30255.00" departPos="2198.43" arrivalPos="90.08" arrivalSpeed="0.00" from="16587381#13" to="-16605255"/>
    <trip id="h401c1:1" type="default" depart="30273.00" departPos="1045.28" arrivalPos="1045.28" arrivalSpeed="0.00" from="16755091#9" via="-16606420" to="16755091#9"/>
    <trip id="h406c1:1" type="default" depart="30279.00" departPos="857.35" arrivalPos="30.50" arrivalSpeed="0.00" from="16759320#1" to="16560103#2"/>
    <trip id="h421c1:1" type="default" depart="30280.00" departPos="2588.23" arrivalPos="2588.23" arrivalSpeed="0.00" from="16778938#9" via="768389762" to="16778938#9"/>
    <trip id="h12c1:1" type="default" depart="30286.00" departPos="97.58" arrivalPos="97.58" arrivalSpeed="0.00" from="-16390520#1" via="16584270" to="-16390520#1"/>
    <trip id="h463c1:1" type="default" depart="30288.00" departPos="61.59" arrivalPos="61.59" arrivalSpeed="0.00" from="51686084#5" via="278704377" to="51686084#5"/>
    <trip id="h284c1:1" type="default" depart="30295.00" departPos="974.09" arrivalPos="974.09" arrivalSpeed="0.00" from="16461345#1" via="-16460656#0" to="16461345#1"/>
    <trip id="h157c1:1" type="default" depart="30305.00" departPos="353.54" arrivalPos="353.54" arrivalSpeed="0.00" from="-16741204" via="16393136#3" to="-16741204"/>
    <trip id="h238c1:1" type="default" depart="30309.00" departPos="37.07" arrivalPos="391.18" arrivalSpeed="0.00" from="-97418971#11" to="-581029966#7"/>
    <trip id="h28c1:1" type="default" depart="30310.00" departPos="51.18" arrivalPos="51.18" arrivalSpeed="0.00" from="-16395316#7" via="16758602" to="-16395316#7"/>
    <trip id="h101c1:1" type="default" depart="30315.00" departPos="36.97" arrivalPos="0.35" arrivalSpeed="0.00" from="-16591902#1" to="-133027998#7"/>
    <trip id="h334c1:1" type="default" depart="30337.00" departPos="151.05" arrivalPos="151.05" arrivalSpeed="0.00" from="16589918#1" via="-16595896#10" to="16589918#1"/>
    <trip id="h343c1:1" type="default" depart="30339.00" departPos="178.15" arrivalPos="108.83" arrivalSpeed="0.00" from="16594257#0" to="16738649#1"/>
    <trip id="h444c1:1" type="default" depart="30344.00" departPos="144.44" arrivalPos="13.17" arrivalSpeed="0.00" from="36114393#17" to="-16397395#0"/>
    <trip id="h199c1:1" type="default" depart="30349.00" departPos="20.08" arrivalPos="20.08" arrivalSpeed="0.00" from="-324512109#0" via="252647683" to="-324512109#0"/>
    <trip id="h58c1:1" type="default" depart="30362.00" departPos="240.91" arrivalPos="240.91" arrivalSpeed="0.00" from="-16509476" via="-16551022" to="-16509476"/>
    <trip id="h288c1:1" type="default" depart="30363.00" departPos="301.63" arrivalPos="301.63" arrivalSpeed="0.00" from="16505395#25" via="16592452" to="16505395#25"/>
    <trip id="h110c1:1" type="default" depart="30372.00" departPos="259.70" arrivalPos="259.70" arrivalSpeed="0.00" from="-16596214#1" via="-16603037" to="-16596214#1"/>
    <trip id="h292c1:1" type="default" depart="30377.00" departPos="11.25" arrivalPos="11.25" arrivalSpeed="0.00" from="16512919#0" via="-499062937#54" to="16512919#0"/>
    <trip id="h353c1:1" type="default" depart="30383.00" departPos="427.34" arrivalPos="427.34" arrivalSpeed="0.00" from="16599249#0" via="16392914#8" to="16599249#0"/>
    <trip id="h365c1:1" type="default" depart="30383.00" departPos="425.21" arrivalPos="39.01" arrivalSpeed="0.00" from="16605324#0" to="-16757186#0"/>
    <trip id="h355c1:1" type="default" depart="30394.00" departPos="27.76" arrivalPos="27.76" arrivalSpeed="0.00" from="16600312#0" via="16566020" to="16600312#0"/>
    <trip id="randUni111:1" type="random" depart="30396.00" departPos="44.84" arrivalPos="13.49" arrivalSpeed="0.00" from="16763174#0" to="-16602081#0"/>
    <trip id="h193c1:1" type="default" depart="30400.00" departPos="222.83" arrivalPos="32.33" arrivalSpeed="0.00" from="-28435125#4" to="16565509#0"/>
    <trip id="h407c1:1" type="default" depart="30400.00" departPos="199.62" arrivalPos="199.62" arrivalSpeed="0.00" from="16760468#2" via="515400120#0" to="16760468#2"/>
    <trip id="randUni446:1" type="random" depart="30405.00" departPos="0.20" arrivalPos="69.94" arrivalSpeed="0.00" from="16389170#0" to="16506627#30"/>
    <trip id="h441c1:1" type="default" depart="30411.00" departPos="136.80" arrivalPos="4.00" arrivalSpeed="0.00" from="335394463#10" to="16592545#0"/>
    <trip id="h176c1:1" type="default" depart="30414.00" departPos="153.06" arrivalPos="153.06" arrivalSpeed="0.00" from="-16763159#1" via="-16576908#7" to="-16763159#1"/>
    <trip id="h366c1:1" type="default" depart="30421.00" departPos="407.01" arrivalPos="491.30" arrivalSpeed="0.00" from="16605475" to="-16590294#6"/>
    <trip id="h136c1:1" type="default" depart="30427.00" departPos="177.99" arrivalPos="177.99" arrivalSpeed="0.00" from="-16607342" via="16597104#0" to="-16607342"/>
    <trip id="h260c1:1" type="default" depart="30431.00" departPos="1231.14" arrivalPos="1231.14" arrivalSpeed="0.00" from="16394965#8" via="-16390225#3" to="16394965#8"/>
    <trip id="h380c1:1" type="default" depart="30432.00" departPos="444.35" arrivalPos="384.09" arrivalSpeed="0.00" from="16709708#0" to="-744268012"/>
    <trip id="h158c1:1" type="default" depart="30439.00" departPos="478.75" arrivalPos="291.32" arrivalSpeed="0.00" from="-16743619#14" to="-16595124#16"/>
    <trip id="h253c1:1" type="default" depart="30443.00" departPos="174.36" arrivalPos="82.28" arrivalSpeed="0.00" from="16392795#1" to="340746942#0"/>
    <trip id="h19c1:1" type="default" depart="30446.00" departPos="351.49" arrivalPos="351.49" arrivalSpeed="0.00" from="-16393060#9" via="16545199#0" to="-16393060#9"/>
    <trip id="h139c1:1" type="default" depart="30451.00" departPos="799.95" arrivalPos="799.95" arrivalSpeed="0.00" from="-16608496#7" via="-16587077#16" to="-16608496#7"/>
    <trip id="h465c1:1" type="default" depart="30452.00" departPos="108.01" arrivalPos="83.12" arrivalSpeed="0.00" from="571842722#8" to="48952125#2"/>
    <trip id="h32c1:1" type="default" depart="30455.00" departPos="691.82" arrivalPos="691.82" arrivalSpeed="0.00" from="-16396230#1" via="-16555673#28" to="-16396230#1"/>
    <trip id="h96c1:1" type="default" depart="30469.00" departPos="13.41" arrivalPos="13.41" arrivalSpeed="0.00" from="-16589580#0" via="16573938" to="-16589580#0"/>
    <trip id="h390c1:1" type="default" depart="30490.00" departPos="756.03" arrivalPos="756.03" arrivalSpeed="0.00" from="16742735#19" via="-16576092#36" to="16742735#19"/>
    <trip id="h164c1:1" type="default" depart="30495.00" departPos="25.01" arrivalPos="25.01" arrivalSpeed="0.00" from="-16750769#0" via="16581523#3" to="-16750769#0"/>
    <trip id="h60c1:1" type="default" depart="30497.00" departPos="81.74" arrivalPos="34.22" arrivalSpeed="0.00" from="-16545490" to="-16586412#1"/>
    <trip id="h150c1:1" type="default" depart="30506.00" departPos="399.95" arrivalPos="399.95" arrivalSpeed="0.00" from="-16711357#14" via="610992704#0" to="-16711357#14"/>
    <trip id="h357c1:1" type="default" depart="30506.00" departPos="96.54" arrivalPos="154.89" arrivalSpeed="0.00" from="16601990#2" to="16396220#11"/>
    <trip id="h94c1:1" type="default" depart="30510.00" departPos="1.59" arrivalPos="25.54" arrivalSpeed="0.00" from="-16587681" to="846597263#6"/>
    <trip id="h116c1:1" type="default" depart="30510.00" departPos="20.79" arrivalPos="20.79" arrivalSpeed="0.00" from="-16598927#3" via="-16608239#24" to="-16598927#3"/>
    <trip id="h443c1:1" type="default" depart="30513.00" departPos="870.01" arrivalPos="870.01" arrivalSpeed="0.00" from="342657493#0" via="-16558002#1" to="342657493#0"/>
    <trip id="h271c1:1" type="default" depart="30519.00" departPos="5.43" arrivalPos="5.43" arrivalSpeed="0.00" from="16399045#0" via="-16399534#5" to="16399045#0"/>
    <trip id="h11c1:1" type="default" depart="30523.00" departPos="291.18" arrivalPos="95.51" arrivalSpeed="0.00" from="-16390337#9" to="-16595139#1"/>
    <trip id="h428c1:1" type="default" depart="30523.00" departPos="928.20" arrivalPos="928.20" arrivalSpeed="0.00" from="27767233#0" via="16564119#2" to="27767233#0"/>
    <trip id="h423c1:1" type="default" depart="30543.00" departPos="45.35" arrivalPos="45.35" arrivalSpeed="0.00" from="174791324#1" via="-252651477" to="174791324#1"/>
    <trip id="h43c1:1" type="default" depart="30548.00" departPos="404.12" arrivalPos="404.12" arrivalSpeed="0.00" from="-16399921#0" via="-340749400#7" to="-16399921#0"/>
    <trip id="h345c1:1" type="default" depart="30549.00" departPos="445.38" arrivalPos="66.55" arrivalSpeed="0.00" from="16595124#12" to="756137968#0"/>
    <trip id="h452c1:1" type="default" depart="30552.00" departPos="35.91" arrivalPos="35.91" arrivalSpeed="0.00" from="438282463" via="-715819661#3" to="438282463"/>
    <trip id="h215c1:1" type="default" depart="30566.00" departPos="29.10" arrivalPos="6.26" arrivalSpeed="0.00" from="-610786785" to="632173003"/>
    <trip id="h108c1:1" type="default" depart="30567.00" departPos="46.22" arrivalPos="163.58" arrivalSpeed="0.00" from="-16595511#10" to="-16394074#2"/>
    <trip id="h131c1:1" type="default" depart="30577.00" departPos="23.34" arrivalPos="23.34" arrivalSpeed="0.00" from="-16605340#2" via="-16606171#1" to="-16605340#2"/>
    <trip id="h497c1:1" type="default" depart="30583.00" departPos="166.31" arrivalPos="39.79" arrivalSpeed="0.00" from="803276362#3" to="-282684197#1"/>
    <trip id="h278c1:1" type="default" depart="30587.00" departPos="247.75" arrivalPos="247.75" arrivalSpeed="0.00" from="16458933#0" via="-846597249#4" to="16458933#0"/>
    <trip id="h471c1:1" type="default" depart="30587.00" departPos="112.77" arrivalPos="112.77" arrivalSpeed="0.00" from="617889641#0" via="16604753#0" to="617889641#0"/>
    <trip id="h470c1:1" type="default" depart="30596.00" departPos="447.40" arrivalPos="447.40" arrivalSpeed="0.00" from="613595116" via="16703064#2" to="613595116"/>
    <trip id="h294c1:1" type="default" depart="30598.00" departPos="44.50" arrivalPos="44.50" arrivalSpeed="0.00" from="16545854" via="16591251#0" to="16545854"/>
    <trip id="h464c1:1" type="default" depart="30598.00" departPos="525.63" arrivalPos="525.63" arrivalSpeed="0.00" from="56114304" via="-16603683" to="56114304"/>
    <trip id="h327c1:1" type="default" depart="30612.00" departPos="509.38" arrivalPos="509.38" arrivalSpeed="0.00" from="16585436#23" via="16555565#1" to="16585436#23"/>
    <trip id="h468c1:1" type="default" depart="30613.00" departPos="111.97" arrivalPos="14.26" arrivalSpeed="0.00" from="609872242#0" to="-311053972#1"/>
    <trip id="h269c1:1" type="default" depart="30631.00" departPos="1484.51" arrivalPos="1484.51" arrivalSpeed="0.00" from="16398409#10" via="278436301#1" to="16398409#10"/>